[General]
#network = PaperEvaluation
network = ManetTest
tkenv-image-path = ../images
simtime-scale = -6

# ARA parameters
**.deltaPhi = 2.0
**.initialPhi = 1.0
**.ackTimeout = 4000us

# set the evaporation policy (ARA)
**.evaporationModel = "OMNeTExponentialEvaporationPolicy"
# set the forwarding policy (ARA)
**.forwardingPolicyModel = "OMNeTStochasticFowardingPolicy"

*.playgroundSizeX = 800
*.playgroundSizeY = 800
**.coreDebug = false
**.channelNumber = 0
**.channelcontrol.numChannels = 1
**.mobility.x = -1
**.mobility.y = -1

# Application layer properties
**.node2.app.srcAddr = "192.168.0.2"
**.node2.app.destAddr = "192.168.0.3"
#**.packetLength = 256B
#**.app.destAddresses = "192.168.0.2 192.168.0.2 192.168.0.3"

# channel physical parameters
*.channelcontrol.carrierFrequency = 2.4GHz
*.channelcontrol.pMax = 20mW
*.channelcontrol.sat = -110dBm
*.channelcontrol.alpha = 2

# nic settings
**.mac.address = "auto"
**.mac.maxQueueSize = 14
**.mac.rtsThresholdBytes = 3000B
**.mac.bitrate = 2Mbps

**.radio.bitrate = 2Mbps
**.radio.transmitterPower = 2.0mW
**.radio.carrierFrequency = 2.4GHz
**.radio.transmitterPower = 20.0mW
**.radio.thermalNoise = -110dBm
**.radio.sensitivity = -85dBm
**.radio.pathLossAlpha = 2
**.radio.snirThreshold = 4dB

# battery settings
**.phy.usageCpuActive = 7.6
**.phy.usageCpuSleep = 0.237

**.radio.usage_radio_idle = 1.38mA
**.radio.usage_radio_recv = 9.6mA 
**.radio.usage_radio_sleep = 0.06mA 
**.radio.usage_radio_send = 0.450mA

**.battery.nominal = 1
**.battery.capacity = 1
**.battery.voltage = 1
#**.battery.nominal = 25
#**.battery.capacity = 25
#**.battery.voltage = 10
**.battery.resolution = 1s
**.battery.publishDelta = 0.5
**.battery.publishTime = 20s

[Config ARAPaperEvaluation]
network = ARAPaperEvaluation

# FIXME
**.constraintAreaMinX = 0m
**.constraintAreaMinY = 0m
**.constraintAreaMinZ = 0m
**.constraintAreaMaxX = 600m
**.constraintAreaMaxY = 400m
**.constraintAreaMaxZ = 0m

# set the description field of the scenario
description = "Simulation settings are based on: ARA The Ant-Colony Based Routing Algorithm for MANETs" 
# set the simulation time to 900 seconds
sim-time-limit = 900s

# set the size of the area to 1500 m x 300 m
*.playgroundSizeX = 1500
*.playgroundSizeY = 300
*.playgroundSizeZ = 300

# set the number of hosts
*.numHosts = 50
# set the type of the mobility model
**.node*.mobilityType = "RandomWPMobility"
# denotes the speed of a node (mps = meter per second)
**.node*.mobility.speed = 10mps
# wait time between reaching a target and choosing a new one (means the pause time?)
**.node*.mobility.waitTime = uniform(3s,8s)
# default is 0.1s (100ms)
**.node*.mobility.updateInterval = 100ms
